
OS:Version,
  {4ef969c8-35f6-4f1b-afd4-c570f90b97d0}, !- Handle
  3.0.1;                                  !- Version Identifier

OS:Schedule:Constant,
  {01044d75-7f44-4222-988e-6bcdc10fb9f4}, !- Handle
  Always On Discrete,                     !- Name
  ,                                       !- Schedule Type Limits Name
  1;                                      !- Value

OS:ScheduleTypeLimits,
  {46639c15-3d9e-445e-bf44-62058e5636d7}, ! Handle
  Fraction,                               ! Name
  0,                                      ! Lower Limit Value
  1,                                      ! Upper Limit Value
  CONTINUOUS;                             ! Numeric Type

OS:Building,
  {161a51f0-9700-4aa1-8ba8-f2513d0eecae}, !- Handle
  Building 1,                             !- Name
  ,                                       !- Building Sector Type
  ,                                       !- North Axis {deg}
  ,                                       !- Nominal Floor to Floor Height {m}
  ,                                       !- Space Type Name
  {c843ac02-1e81-40be-b7ce-59ca34e6922f}, !- Default Construction Set Name
  ,                                       !- Default Schedule Set Name
  ,                                       !- Standards Number of Stories
  ,                                       !- Standards Number of Above Ground Stories
  ,                                       !- Standards Template
  ,                                       !- Standards Building Type
  ,                                       !- Standards Number of Living Units
  ,                                       !- Relocatable
  ;                                       !- Nominal Floor to Ceiling Height {m}

OS:ScheduleTypeLimits,
  {c50de33e-2a31-403b-929e-8d1c42a993ef}, !- Handle
  Fractional,                             !- Name
  0,                                      !- Lower Limit Value
  1,                                      !- Upper Limit Value
  Continuous;                             !- Numeric Type

OS:ScheduleTypeLimits,
  {53148dd4-84bd-4672-a23f-d1e6e10976bd}, !- Handle
  Temperature,                            !- Name
  ,                                       !- Lower Limit Value
  ,                                       !- Upper Limit Value
  Continuous,                             !- Numeric Type
  Temperature;                            !- Unit Type

OS:DefaultConstructionSet,
  {c843ac02-1e81-40be-b7ce-59ca34e6922f}, !- Handle
  Steca_Frezeer_Construction_Set,         !- Name
  {5087102c-c07c-40d4-acaf-15aea71334e6}, !- Default Exterior Surface Constructions Name
  {9077730e-2e9e-40da-bde3-f6dccf02df74}, !- Default Interior Surface Constructions Name
  {ab3fedaf-36af-4082-a9eb-bf2c9086fdf9}, !- Default Ground Contact Surface Constructions Name
  {2708fc51-1b62-41e8-a280-a10f13e07cb0}, !- Default Exterior SubSurface Constructions Name
  {79a07fa0-d367-4700-91ec-6cb78907d458}, !- Default Interior SubSurface Constructions Name
  ,                                       !- Interior Partition Construction Name
  ,                                       !- Space Shading Construction Name
  ,                                       !- Building Shading Construction Name
  ,                                       !- Site Shading Construction Name
  ;                                       !- Adiabatic Surface Construction Name

OS:DefaultSurfaceConstructions,
  {5087102c-c07c-40d4-acaf-15aea71334e6}, !- Handle
  Default Surface Constructions 13,       !- Name
  {d5c64026-fa3b-4ab3-bb89-7b01cf2c44f5}, !- Floor Construction Name
  {d5c64026-fa3b-4ab3-bb89-7b01cf2c44f5}, !- Wall Construction Name
  {d5c64026-fa3b-4ab3-bb89-7b01cf2c44f5}; !- Roof Ceiling Construction Name

OS:Construction,
  {d5c64026-fa3b-4ab3-bb89-7b01cf2c44f5}, !- Handle
  Cyclopentance_wall,                     !- Name
  {cf97ee75-0460-4c01-b8ab-ff16f7f804f9}, !- Surface Rendering Name
  {3c17d746-76db-4667-8275-e69b2edc4990}, !- Layer 1
  {64130473-de67-47ce-9f1e-2f3740030574}, !- Layer 2
  {7526fcc4-0065-430b-a06c-5a33dcf9e893}; !- Layer 3

OS:StandardsInformation:Construction,
  {df82085e-4812-49e2-ae52-5a48096fc3c4}, !- Handle
  {d5c64026-fa3b-4ab3-bb89-7b01cf2c44f5}, !- Construction Name
  ExteriorWall,                           !- Intended Surface Type
  Mass,                                   !- Standards Construction Type
  ,                                       !- Perturbable Layer
  ,                                       !- Perturbable Layer Type
  ,                                       !- Other Perturbable Layer Type
  ;                                       !- Construction Standard

OS:DefaultSurfaceConstructions,
  {9077730e-2e9e-40da-bde3-f6dccf02df74}, !- Handle
  Default Surface Constructions 14,       !- Name
  {d5c64026-fa3b-4ab3-bb89-7b01cf2c44f5}, !- Floor Construction Name
  {d5c64026-fa3b-4ab3-bb89-7b01cf2c44f5}, !- Wall Construction Name
  {d5c64026-fa3b-4ab3-bb89-7b01cf2c44f5}; !- Roof Ceiling Construction Name

OS:DefaultSurfaceConstructions,
  {ab3fedaf-36af-4082-a9eb-bf2c9086fdf9}, !- Handle
  Default Surface Constructions 15,       !- Name
  {d5c64026-fa3b-4ab3-bb89-7b01cf2c44f5}, !- Floor Construction Name
  {d5c64026-fa3b-4ab3-bb89-7b01cf2c44f5}, !- Wall Construction Name
  {d5c64026-fa3b-4ab3-bb89-7b01cf2c44f5}; !- Roof Ceiling Construction Name

OS:DefaultSubSurfaceConstructions,
  {2708fc51-1b62-41e8-a280-a10f13e07cb0}, !- Handle
  Default Sub Surface Constructions 9,    !- Name
  ,                                       !- Fixed Window Construction Name
  ,                                       !- Operable Window Construction Name
  ,                                       !- Door Construction Name
  ,                                       !- Glass Door Construction Name
  ,                                       !- Overhead Door Construction Name
  ,                                       !- Skylight Construction Name
  ,                                       !- Tubular Daylight Dome Construction Name
  ;                                       !- Tubular Daylight Diffuser Construction Name

OS:DefaultSubSurfaceConstructions,
  {79a07fa0-d367-4700-91ec-6cb78907d458}, !- Handle
  Default Sub Surface Constructions 10,   !- Name
  ,                                       !- Fixed Window Construction Name
  ,                                       !- Operable Window Construction Name
  ,                                       !- Door Construction Name
  ,                                       !- Glass Door Construction Name
  ,                                       !- Overhead Door Construction Name
  ,                                       !- Skylight Construction Name
  ,                                       !- Tubular Daylight Dome Construction Name
  ;                                       !- Tubular Daylight Diffuser Construction Name

OS:Site,
  {67954095-e568-4057-a467-6d726fa7832a}, !- Handle
  EL-MONTE,                               !- Name
  34.08,                                  !- Latitude {deg}
  -118.03,                                !- Longitude {deg}
  -8,                                     !- Time Zone {hr}
  90,                                     !- Elevation {m}
  ;                                       !- Terrain

OS:YearDescription,
  {ced9d852-3dbd-4e6c-ade7-1e572711c3f2}, !- Handle
  2019,                                   !- Calendar Year
  ,                                       !- Day of Week for Start Day
  ;                                       !- Is Leap Year

OS:ClimateZones,
  {f9298a12-fa75-446c-a6a6-301b9e4dc7b8}, !- Handle
  ASHRAE,                                 !- Climate Zone Institution Name 1
  ANSI/ASHRAE Standard 169,               !- Climate Zone Document Name 1
  2006,                                   !- Climate Zone Document Year 1
  ,                                       !- Climate Zone Value 1
  CEC,                                    !- Climate Zone Institution Name 2
  California Climate Zone Descriptions,   !- Climate Zone Document Name 2
  1995,                                   !- Climate Zone Document Year 2
  ;                                       !- Climate Zone Value 2

OS:LifeCycleCost:Parameters,
  {fb618376-732f-4376-831c-e5bee8e3ceba}, !- Handle
  FEMP,                                   !- Analysis Type
  ,                                       !- Discounting Convention
  ,                                       !- Inflation Approach
  ,                                       !- Real Discount Rate
  ,                                       !- Nominal Discount Rate
  ,                                       !- Inflation
  ,                                       !- Base Date Month
  ,                                       !- Base Date Year
  ,                                       !- Service Date Month
  ,                                       !- Service Date Year
  ,                                       !- Length of Study Period in Years
  ,                                       !- Tax Rate
  ,                                       !- Depreciation Method
  Yes;                                    !- Use NIST Fuel Escalation Rates

OS:Facility,
  {67aa9559-41cc-4015-a2b3-ee95a9bcd8ad}; !- Handle

OS:Rendering:Color,
  {cf97ee75-0460-4c01-b8ab-ff16f7f804f9}, !- Handle
  Rendering Color 45,                     !- Name
  255,                                    !- Rendering Red Value
  20,                                     !- Rendering Green Value
  147;                                    !- Rendering Blue Value

OS:BuildingStory,
  {520b7cc0-c789-41a5-a673-b6079b810196}, !- Handle
  Building Story 1,                       !- Name
  0,                                      !- Nominal Z Coordinate {m}
  0.381,                                  !- Nominal Floor to Floor Height {m}
  ,                                       !- Default Construction Set Name
  ,                                       !- Default Schedule Set Name
  {fbaa0d4f-2687-4e3e-b6b7-c0bd6c3fb703}, !- Group Rendering Name
  ;                                       !- Nominal Floor to Ceiling Height {m}

OS:Rendering:Color,
  {fbaa0d4f-2687-4e3e-b6b7-c0bd6c3fb703}, !- Handle
  Rendering Color 59,                     !- Name
  255,                                    !- Rendering Red Value
  215,                                    !- Rendering Green Value
  0;                                      !- Rendering Blue Value

OS:ThermalZone,
  {fc8ed495-999a-421d-b2da-0ea04baca0bd}, !- Handle
  ConditionedZone,                        !- Name
  ,                                       !- Multiplier
  ,                                       !- Ceiling Height {m}
  ,                                       !- Volume {m3}
  ,                                       !- Floor Area {m2}
  ,                                       !- Zone Inside Convection Algorithm
  ,                                       !- Zone Outside Convection Algorithm
  ,                                       !- Zone Conditioning Equipment List Name
  {4b33a74f-db34-426e-b42b-28267d44c473}, !- Zone Air Inlet Port List
  {030b365c-bd0a-4c3e-9daa-9aa7daec05f3}, !- Zone Air Exhaust Port List
  {ec8555bf-28f8-4cbe-b0b6-b5807d01bcf1}, !- Zone Air Node Name
  {5940f796-5006-413c-9ed8-748a524c5ab4}, !- Zone Return Air Port List
  ,                                       !- Primary Daylighting Control Name
  ,                                       !- Fraction of Zone Controlled by Primary Daylighting Control
  ,                                       !- Secondary Daylighting Control Name
  ,                                       !- Fraction of Zone Controlled by Secondary Daylighting Control
  ,                                       !- Illuminance Map Name
  {90bc3e3f-b63e-4dcb-a7b0-dfd469877584}, !- Group Rendering Name
  {f04b1e25-b451-436e-b58c-20bb65e73335}, !- Thermostat Name
  Yes,                                    !- Use Ideal Air Loads
  ;                                       !- Humidistat Name

OS:Node,
  {e197adbf-a4b5-4efb-8bfd-6695f00836b9}, !- Handle
  Node 1,                                 !- Name
  {ec8555bf-28f8-4cbe-b0b6-b5807d01bcf1}, !- Inlet Port
  ;                                       !- Outlet Port

OS:Connection,
  {ec8555bf-28f8-4cbe-b0b6-b5807d01bcf1}, !- Handle
  {73885ddf-0134-4833-8520-18bfdcd222b3}, !- Name
  {fc8ed495-999a-421d-b2da-0ea04baca0bd}, !- Source Object
  11,                                     !- Outlet Port
  {e197adbf-a4b5-4efb-8bfd-6695f00836b9}, !- Target Object
  2;                                      !- Inlet Port

OS:PortList,
  {4b33a74f-db34-426e-b42b-28267d44c473}, !- Handle
  {cb27a12c-d57f-4905-b86b-3edd088516ca}, !- Name
  {fc8ed495-999a-421d-b2da-0ea04baca0bd}; !- HVAC Component

OS:PortList,
  {030b365c-bd0a-4c3e-9daa-9aa7daec05f3}, !- Handle
  {419f347e-d2ff-4a85-85ac-c6c8cb1f5737}, !- Name
  {fc8ed495-999a-421d-b2da-0ea04baca0bd}; !- HVAC Component

OS:PortList,
  {5940f796-5006-413c-9ed8-748a524c5ab4}, !- Handle
  {f2d1712a-6eb9-466f-bc3b-797ecdd4cc9c}, !- Name
  {fc8ed495-999a-421d-b2da-0ea04baca0bd}; !- HVAC Component

OS:Sizing:Zone,
  {96515fcd-852f-4f00-9a2e-8daeaf1b69db}, !- Handle
  {fc8ed495-999a-421d-b2da-0ea04baca0bd}, !- Zone or ZoneList Name
  SupplyAirTemperature,                   !- Zone Cooling Design Supply Air Temperature Input Method
  14,                                     !- Zone Cooling Design Supply Air Temperature {C}
  11.11,                                  !- Zone Cooling Design Supply Air Temperature Difference {deltaC}
  SupplyAirTemperature,                   !- Zone Heating Design Supply Air Temperature Input Method
  40,                                     !- Zone Heating Design Supply Air Temperature {C}
  11.11,                                  !- Zone Heating Design Supply Air Temperature Difference {deltaC}
  0.0085,                                 !- Zone Cooling Design Supply Air Humidity Ratio {kg-H2O/kg-air}
  0.008,                                  !- Zone Heating Design Supply Air Humidity Ratio {kg-H2O/kg-air}
  ,                                       !- Zone Heating Sizing Factor
  ,                                       !- Zone Cooling Sizing Factor
  DesignDay,                              !- Cooling Design Air Flow Method
  ,                                       !- Cooling Design Air Flow Rate {m3/s}
  ,                                       !- Cooling Minimum Air Flow per Zone Floor Area {m3/s-m2}
  ,                                       !- Cooling Minimum Air Flow {m3/s}
  ,                                       !- Cooling Minimum Air Flow Fraction
  DesignDay,                              !- Heating Design Air Flow Method
  ,                                       !- Heating Design Air Flow Rate {m3/s}
  ,                                       !- Heating Maximum Air Flow per Zone Floor Area {m3/s-m2}
  ,                                       !- Heating Maximum Air Flow {m3/s}
  ,                                       !- Heating Maximum Air Flow Fraction
  No,                                     !- Account for Dedicated Outdoor Air System
  NeutralSupplyAir,                       !- Dedicated Outdoor Air System Control Strategy
  autosize,                               !- Dedicated Outdoor Air Low Setpoint Temperature for Design {C}
  autosize;                               !- Dedicated Outdoor Air High Setpoint Temperature for Design {C}

OS:ZoneHVAC:EquipmentList,
  {aa35a0c9-edca-415e-857b-8ffe53a0a92e}, !- Handle
  Zone HVAC Equipment List 1,             !- Name
  {fc8ed495-999a-421d-b2da-0ea04baca0bd}; !- Thermal Zone

OS:Rendering:Color,
  {90bc3e3f-b63e-4dcb-a7b0-dfd469877584}, !- Handle
  Rendering Color 60,                     !- Name
  245,                                    !- Rendering Red Value
  245,                                    !- Rendering Green Value
  220,                                    !- Rendering Blue Value
  ;                                       !- Rendering Alpha Value

OS:SimulationControl,
  {c2f1c2f7-f1af-4380-9ba4-fb0ec5f72dd6}, !- Handle
  No,                                     !- Do Zone Sizing Calculation
  No,                                     !- Do System Sizing Calculation
  No,                                     !- Do Plant Sizing Calculation
  No;                                     !- Run Simulation for Sizing Periods

OS:Sizing:Parameters,
  {0ee04131-f970-42da-b2be-98abd7075467}, !- Handle
  1.25,                                   !- Heating Sizing Factor
  1.15;                                   !- Cooling Sizing Factor

OS:Timestep,
  {0e0006af-41c9-4cff-943e-7269323b11cb}, !- Handle
  60;                                     !- Number of Timesteps per Hour

OS:ShadowCalculation,
  {3ea99394-a352-4e30-844e-7425b01d305e}, !- Handle
  PolygonClipping,                        !- Shading Calculation Method
  ,                                       !- Shading Calculation Update Frequency Method
  20,                                     !- Shading Calculation Update Frequency
  15000,                                  !- Maximum Figures in Shadow Overlap Calculations
  ,                                       !- Polygon Clipping Algorithm
  512,                                    !- Pixel Counting Resolution
  ,                                       !- Sky Diffuse Modeling Algorithm
  No,                                     !- Output External Shading Calculation Results
  No,                                     !- Disable Self-Shading Within Shading Zone Groups
  No;                                     !- Disable Self-Shading From Shading Zone Groups to Other Zones

OS:HeatBalanceAlgorithm,
  {05a65ae2-452f-4dc7-bfc7-9908e6a6bc0e}, !- Handle
  ConductionTransferFunction,             !- Algorithm
  200;                                    !- Surface Temperature Upper Limit {C}

OS:RunPeriod,
  {f54056ed-4d17-4503-844c-58779360665c}, !- Handle
  Run Period 1,                           !- Name
  1,                                      !- Begin Month
  1,                                      !- Begin Day of Month
  1,                                      !- End Month
  10,                                     !- End Day of Month
  ,                                       !- Use Weather File Holidays and Special Days
  ,                                       !- Use Weather File Daylight Saving Period
  ,                                       !- Apply Weekend Holiday Rule
  ,                                       !- Use Weather File Rain Indicators
  ,                                       !- Use Weather File Snow Indicators
  ;                                       !- Number of Times Runperiod to be Repeated

OS:Material,
  {64130473-de67-47ce-9f1e-2f3740030574}, !- Handle
  Cyclopentance,                          !- Name
  MediumRough,                            !- Roughness
  0.1,                                    !- Thickness {m}
  0.038,                                  !- Conductivity {W/m-K}
  35,                                     !- Density {kg/m3}
  1400,                                   !- Specific Heat {J/kg-K}
  0.9,                                    !- Thermal Absorptance
  0.5,                                    !- Solar Absorptance
  0.5;                                    !- Visible Absorptance

OS:StandardsInformation:Material,
  {8ca1845e-0b5e-44cd-852b-ac4fe7d8c84a}, !- Handle
  {64130473-de67-47ce-9f1e-2f3740030574}; !- Material Name

OS:RadianceParameters,
  {41c1b2da-3792-4cc5-9100-85a52479acf5}, !- Handle
  1,                                      !- Accumulated Rays per Record
  0,                                      !- Direct Threshold
  1,                                      !- Direct Certainty
  1,                                      !- Direct Jitter
  1,                                      !- Direct Pretest
  6,                                      !- Ambient Bounces VMX
  2,                                      !- Ambient Bounces DMX
  4050,                                   !- Ambient Divisions VMX
  512,                                    !- Ambient Divisions DMX
  256,                                    !- Ambient Supersamples
  0.001,                                  !- Limit Weight VMX
  0.001,                                  !- Limit Weight DMX
  500,                                    !- Klems Sampling Density
  146;                                    !- Sky Discretization Resolution

OS:ProgramControl,
  {f3a8d122-710e-4560-9e3b-b99d9eaf5a1f}; !- Handle

OS:OutputControl:ReportingTolerances,
  {5f150943-6b0e-4cc1-a4ee-d150975536d4}; !- Handle

OS:ConvergenceLimits,
  {c78e37cb-daaa-4a1d-b63b-f9e7eb7fa7fc}, !- Handle
  1;                                      !- Minimum System Timestep {minutes}

OS:SurfaceConvectionAlgorithm:Inside,
  {f8c96113-7345-43c3-8a1e-00ef4e5a6bed}, !- Handle
  TARP;                                   !- Algorithm

OS:SurfaceConvectionAlgorithm:Outside,
  {52c40451-f894-44d0-9584-45432d418836}, !- Handle
  DOE-2;                                  !- Algorithm

OS:ZoneAirHeatBalanceAlgorithm,
  {71f09b07-f5c2-4886-9584-f93a743a0b24}, !- Handle
  ThirdOrderBackwardDifference;           !- Algorithm

OS:ZoneAirContaminantBalance,
  {9ade5fa8-a95c-4d63-8918-2733f2062c9d}; !- Handle

OS:ZoneCapacitanceMultiplier:ResearchSpecial,
  {ff2b45ba-a982-46a7-9a81-f85a38aeb7cb}, !- Handle
  21,                                     !- Temperature Capacity Multiplier
  ,                                       !- Humidity Capacity Multiplier
  ;                                       !- Carbon Dioxide Capacity Multiplier

OS:Schedule:Constant,
  {eeff19ed-2911-4dfc-8d41-c8cd23fcad6e}, !- Handle
  CONSTANT AMBIENT TEMEPERATURE,          !- Name
  {53148dd4-84bd-4672-a23f-d1e6e10976bd}, !- Schedule Type Limits Name
  24;                                     !- Value

OS:ThermostatSetpoint:DualSetpoint,
  {f04b1e25-b451-436e-b58c-20bb65e73335}, !- Handle
  ConditionedZone Dual Setpoint Thermostats, !- Name
  {d5bb8c9b-364c-4c98-8e15-55001dcad56e}, !- Heating Setpoint Temperature Schedule Name
  {d5bb8c9b-364c-4c98-8e15-55001dcad56e}; !- Cooling Setpoint Temperature Schedule Name

OS:Space,
  {7f60fefd-5b22-4542-891f-ac8262109e0f}, !- Handle
  ConditionedZone,                        !- Name
  ,                                       !- Space Type Name
  ,                                       !- Default Construction Set Name
  ,                                       !- Default Schedule Set Name
  ,                                       !- Direction of Relative North {deg}
  2.37469753706411,                       !- X Origin {m}
  0.530048201779473,                      !- Y Origin {m}
  1.80477854883065e-16,                   !- Z Origin {m}
  ,                                       !- Building Story Name
  {fc8ed495-999a-421d-b2da-0ea04baca0bd}, !- Thermal Zone Name
  ,                                       !- Part of Total Floor Area
  ,                                       !- Design Specification Outdoor Air Object Name
  ;                                       !- Building Unit Name

OS:Surface,
  {33f6e21e-2192-4fe7-ba8d-0bd61cf8586a}, !- Handle
  ConditionedZone_RoofCeiling_exterior,   !- Name
  RoofCeiling,                            !- Surface Type
  ,                                       !- Construction Name
  {7f60fefd-5b22-4542-891f-ac8262109e0f}, !- Space Name
  Outdoors,                               !- Outside Boundary Condition
  ,                                       !- Outside Boundary Condition Object
  SunExposed,                             !- Sun Exposure
  WindExposed,                            !- Wind Exposure
  ,                                       !- View Factor to Ground
  ,                                       !- Number of Vertices
  0.4, 0, 0.67,                           !- X,Y,Z Vertex 1 {m}
  0.4, 0.445, 0.67,                       !- X,Y,Z Vertex 2 {m}
  0, 0.445, 0.67,                         !- X,Y,Z Vertex 3 {m}
  0, 0, 0.67;                             !- X,Y,Z Vertex 4 {m}

OS:Surface,
  {0205955a-870b-4502-9cb5-0365d1d6b0a8}, !- Handle
  ConditionedZone_Wall_exterior,          !- Name
  Wall,                                   !- Surface Type
  ,                                       !- Construction Name
  {7f60fefd-5b22-4542-891f-ac8262109e0f}, !- Space Name
  Outdoors,                               !- Outside Boundary Condition
  ,                                       !- Outside Boundary Condition Object
  SunExposed,                             !- Sun Exposure
  WindExposed,                            !- Wind Exposure
  ,                                       !- View Factor to Ground
  ,                                       !- Number of Vertices
  0, 0.445, 0.67,                         !- X,Y,Z Vertex 1 {m}
  0, 0.445, 0,                            !- X,Y,Z Vertex 2 {m}
  0, 0, 0,                                !- X,Y,Z Vertex 3 {m}
  0, 0, 0.67;                             !- X,Y,Z Vertex 4 {m}

OS:Surface,
  {0f4a0369-90d3-42ea-9138-73d602c1590a}, !- Handle
  ConditionedZone_Wall_exterior 1,        !- Name
  Wall,                                   !- Surface Type
  ,                                       !- Construction Name
  {7f60fefd-5b22-4542-891f-ac8262109e0f}, !- Space Name
  Outdoors,                               !- Outside Boundary Condition
  ,                                       !- Outside Boundary Condition Object
  SunExposed,                             !- Sun Exposure
  WindExposed,                            !- Wind Exposure
  ,                                       !- View Factor to Ground
  ,                                       !- Number of Vertices
  0.4, 0.445, 0.67,                       !- X,Y,Z Vertex 1 {m}
  0.4, 0.445, 0,                          !- X,Y,Z Vertex 2 {m}
  0, 0.445, 0,                            !- X,Y,Z Vertex 3 {m}
  0, 0.445, 0.67;                         !- X,Y,Z Vertex 4 {m}

OS:Surface,
  {5de691bb-bab2-4ea9-ab86-c88f2e467f4a}, !- Handle
  ConditionedZone_Wall_exterior 2,        !- Name
  Wall,                                   !- Surface Type
  ,                                       !- Construction Name
  {7f60fefd-5b22-4542-891f-ac8262109e0f}, !- Space Name
  Outdoors,                               !- Outside Boundary Condition
  ,                                       !- Outside Boundary Condition Object
  SunExposed,                             !- Sun Exposure
  WindExposed,                            !- Wind Exposure
  ,                                       !- View Factor to Ground
  ,                                       !- Number of Vertices
  0, 0, 0.67,                             !- X,Y,Z Vertex 1 {m}
  0, 0, 0,                                !- X,Y,Z Vertex 2 {m}
  0.4, 0, 0,                              !- X,Y,Z Vertex 3 {m}
  0.4, 0, 0.67;                           !- X,Y,Z Vertex 4 {m}

OS:Surface,
  {0c0f66fa-52d8-4815-87a7-af9890e96b9e}, !- Handle
  ConditionedZone_Floor_exterior,         !- Name
  Floor,                                  !- Surface Type
  ,                                       !- Construction Name
  {7f60fefd-5b22-4542-891f-ac8262109e0f}, !- Space Name
  Outdoors,                               !- Outside Boundary Condition
  ,                                       !- Outside Boundary Condition Object
  SunExposed,                             !- Sun Exposure
  WindExposed,                            !- Wind Exposure
  ,                                       !- View Factor to Ground
  ,                                       !- Number of Vertices
  0.4, 0.445, 0,                          !- X,Y,Z Vertex 1 {m}
  0.4, 0, 0,                              !- X,Y,Z Vertex 2 {m}
  0, 0, 0,                                !- X,Y,Z Vertex 3 {m}
  0, 0.445, 0;                            !- X,Y,Z Vertex 4 {m}

OS:Surface,
  {c66c776e-dc19-4fc3-9b6f-17d35415c6f7}, !- Handle
  ConditionedZone_Wall_interior,          !- Name
  Wall,                                   !- Surface Type
  {d5c64026-fa3b-4ab3-bb89-7b01cf2c44f5}, !- Construction Name
  {7f60fefd-5b22-4542-891f-ac8262109e0f}, !- Space Name
  Surface,                                !- Outside Boundary Condition
  {60d7ea62-3e2d-4b49-af47-c834c1147274}, !- Outside Boundary Condition Object
  NoSun,                                  !- Sun Exposure
  NoWind,                                 !- Wind Exposure
  ,                                       !- View Factor to Ground
  ,                                       !- Number of Vertices
  0.4, 0, 0.27,                           !- X,Y,Z Vertex 1 {m}
  0.4, 0, 0,                              !- X,Y,Z Vertex 2 {m}
  0.4, 0.445, 0,                          !- X,Y,Z Vertex 3 {m}
  0.4, 0.445, 0.27;                       !- X,Y,Z Vertex 4 {m}

OS:Space,
  {cfb0e731-685a-49f5-a666-e739c71859a4}, !- Handle
  Compressor,                             !- Name
  ,                                       !- Space Type Name
  ,                                       !- Default Construction Set Name
  ,                                       !- Default Schedule Set Name
  -0,                                     !- Direction of Relative North {deg}
  2.77469753706411,                       !- X Origin {m}
  0.530048201779473,                      !- Y Origin {m}
  1.80477854883065e-16,                   !- Z Origin {m}
  ,                                       !- Building Story Name
  {81b6383e-cfd1-4b9a-9b79-f072d4463eba}, !- Thermal Zone Name
  ,                                       !- Part of Total Floor Area
  ,                                       !- Design Specification Outdoor Air Object Name
  ;                                       !- Building Unit Name

OS:Surface,
  {8b1cbdc4-cb98-4937-8c21-7beb1e11df2a}, !- Handle
  Surface 15,                             !- Name
  Wall,                                   !- Surface Type
  ,                                       !- Construction Name
  {cfb0e731-685a-49f5-a666-e739c71859a4}, !- Space Name